946
  -OEChem-06142500402D

  3  2  0     0  0  0  0  0  0999 V2000
    2.0000    0.2500    0.0000 O   0  5  0  0  0  0  0  0  0  0  0  0
    3.7321    0.2500    0.0000 O   0  0  0  0  0  0  0  0  0  0  0  0
    2.8660   -0.2500    0.0000 N   0  0  0  0  0  0  0  0  0  0  0  0
  1  3  1  0  0  0  0
  2  3  2  0  0  0  0
M  CHG  1   1  -1
M  END
> <PUBCHEM_COMPOUND_CID>
946

> <PUBCHEM_COMPOUND_CANONICALIZED>
1

> <PUBCHEM_CACTVS_COMPLEXITY>
7.5

> <PUBCHEM_CACTVS_HBOND_ACCEPTOR>
3

> <PUBCHEM_CACTVS_HBOND_DONOR>
0

> <PUBCHEM_CACTVS_ROTATABLE_BOND>
0

> <PUBCHEM_CACTVS_SUBSKEYS>
AAADcQACMAAAAAAAAAAAAAAAAAAAAAAAAAAAAAAAAAAAAAAAAAAAAAAEAAAAAAAAAAAAAAAAQAABAAAAAQAAAAAAAAAAAAAAAAAAAAAAAAAAAAAAAAAAAAAAAAAAAAAAAAAAAAAAAAAAAAAAAAAAAAAAAA==

> <PUBCHEM_IUPAC_OPENEYE_NAME>
nitrite

> <PUBCHEM_IUPAC_CAS_NAME>
nitrite

> <PUBCHEM_IUPAC_NAME_MARKUP>
nitrite

> <PUBCHEM_IUPAC_NAME>
nitrite

> <PUBCHEM_IUPAC_SYSTEMATIC_NAME>
nitrite

> <PUBCHEM_IUPAC_TRADITIONAL_NAME>
nitrite

> <PUBCHEM_IUPAC_INCHI>
InChI=1S/HNO2/c2-1-3/h(H,2,3)/p-1

> <PUBCHEM_IUPAC_INCHIKEY>
IOVCWXUNBOPUCH-UHFFFAOYSA-M

> <PUBCHEM_XLOGP3_AA>
-0.8

> <PUBCHEM_EXACT_MASS>
45.992903243

> <PUBCHEM_MOLECULAR_FORMULA>
NO2-

> <PUBCHEM_MOLECULAR_WEIGHT>
46.006

> <PUBCHEM_SMILES>
N(=O)[O-]

> <PUBCHEM_OPENEYE_CAN_SMILES>
N(=O)[O-]

> <PUBCHEM_OPENEYE_ISO_SMILES>
N(=O)[O-]

> <PUBCHEM_CACTVS_TPSA>
52.5

> <PUBCHEM_MONOISOTOPIC_WEIGHT>
45.992903243

> <PUBCHEM_TOTAL_CHARGE>
-1

> <PUBCHEM_HEAVY_ATOM_COUNT>
3

> <PUBCHEM_ATOM_DEF_STEREO_COUNT>
0

> <PUBCHEM_ATOM_UDEF_STEREO_COUNT>
0

> <PUBCHEM_BOND_DEF_STEREO_COUNT>
0

> <PUBCHEM_BOND_UDEF_STEREO_COUNT>
0

> <PUBCHEM_ISOTOPIC_ATOM_COUNT>
0

> <PUBCHEM_COMPONENT_COUNT>
1

> <PUBCHEM_CACTVS_TAUTO_COUNT>
-1

> <PUBCHEM_COORDINATE_TYPE>
1
5
255

$$$$
